*Heading
** Job name: qplate_quad Model name: Model-1
** Generated by: Abaqus/CAE 6.13-1
*Preprint, echo=NO, model=NO, history=NO, contact=NO
**
** PARTS
**
*Part, name=Part-1
*Node
      1,  0.400000006,           1.
      2,           0.,           1.
      3,           0.,       0.4375
      4,  0.321922362,  0.319392979
      5,           0.,         0.25
      6,  0.177594975,   0.17595461
      7,         0.25,           0.
      8,  0.446428567,           0.
      9,           3.,           0.
     10,           3.,  0.400000006
     11,           3.,           1.
     12,  0.300000012,           1.
     13,  0.200000003,           1.
     14,  0.100000001,           1.
     15,           0.,      0.90625
     16,           0.,       0.8125
     17,           0.,      0.71875
     18,           0.,        0.625
     19,           0.,      0.53125
     20, 0.0696419775,  0.417932093
** ... 323 like lines cut
*Element, type=CPS4R
  1,   1,  12, 123,  27
  2,  12,  13, 124, 123
  3,  13,  14, 125, 124
  4,  14,   2,  15, 125
  5,  27, 123, 126,  26
  6, 123, 124, 127, 126
  7, 124, 125, 128, 127
  8, 125,  15,  16, 128
  9,  26, 126, 129,  25
 10, 126, 127, 130, 129
 11, 127, 128, 131, 130
 12, 128,  16,  17, 131
 13,  25, 129, 132,  24
 14, 129, 130, 133, 132
 15, 130, 131, 134, 133
 16, 131,  17,  18, 134
 17,  24, 132, 135,  23
 18, 132, 133, 136, 135
 19, 133, 134, 137, 136
 20, 134,  18,  19, 137
** ... 280 like lines cut
*Nset, nset=Set-8, generate
   1,  343,    1
*Elset, elset=Set-8, generate
   1,  300,    1
*Nset, nset=Set-10, generate
   1,  343,    1
*Elset, elset=Set-10, generate
   1,  300,    1
** Section: Section-1
*Solid Section, elset=Set-10, material=Material-1
1.,
*End Part
**  
**
** ASSEMBLY
**
*Assembly, name=Assembly
**  
*Instance, name=Part-1-1, part=Part-1
*End Instance
**  
*End Assembly
** 
** MATERIALS
** 
*Material, name=Material-1
*Elastic
 2.5, 0.3
