*Heading
** Job name: qplate_quad_5 Model name: Model-1
** Generated by: Abaqus/CAE 6.13-1
*Preprint, echo=NO, model=NO, history=NO, contact=NO
**
** PARTS
**
*Part, name=Part-1
*End Part
**  
**
** ASSEMBLY
**
*Assembly, name=Assembly
**  
*Instance, name=Part-1-1, part=Part-1
*Node
      1,  0.600000024,           1.
      2,           0.,           1.
      3,           0.,        0.625
      4,  0.498622119,  0.492971808
      5,           0.,         0.25
      6,  0.177594975,   0.17595461
      7,         0.25,           0.
      8,  0.642857134,           0.
      9,           3.,           0.
     10,           3.,  0.600000024
     11,           3.,           1.
     12,  0.400000006,           1.
     13,  0.200000003,           1.
     14,           0.,       0.8125
     15,  0.146315873,  0.599281728
     16,  0.304146916,  0.561885059
     17,  0.557785034,  0.760349393
     18,           0.,       0.4375
     19, 0.0650781468,  0.241381094
     20,  0.125669077,  0.216118678
** ... 81 like lines cut
*Element, type=CPS4R
 1,   1,  12,  63,  17
 2,  12,  13,  64,  63
 3,  13,   2,  14,  64
 4,  17,  63,  16,   4
 5,  63,  64,  15,  16
 6,  64,  14,   3,  15
 7,   3,  18,  65,  15
 8,  18,   5,  19,  65
 9,  15,  65,  66,  16
10,  65,  19,  20,  66
11,  16,  66,  21,   4
12,  66,  20,   6,  21
13,   6,  22,  67,  21
14,  22,  23,  68,  67
15,  23,   7,  24,  68
16,  21,  67,  26,   4
17,  67,  68,  25,  26
18,  68,  24,   8,  25
19,   8,  27,  69,  25
20,  27,  28,  70,  69
** ... 58 like lines cut
*Nset, nset=Set-8, generate
   1,  101,    1
*Elset, elset=Set-8, generate
  1,  78,   1
** Section: Section-1
*Solid Section, elset=Set-8, material=Material-1
1.,
*End Instance
**  
*End Assembly
** 
** MATERIALS
** 
*Material, name=Material-1
*Elastic
 2.5, 0.3
