*Heading
** Job name: qplate_8node_2 Model name: Model-1
** Generated by: Abaqus/CAE 6.13-1
*Preprint, echo=NO, model=NO, history=NO, contact=NO
**
** PARTS
**
*Part, name=Part-1
*End Part
**  
**
** ASSEMBLY
**
*Assembly, name=Assembly
**  
*Instance, name=Part-1-1, part=Part-1
*Node
      1,  0.300000012,           1.
      2,           0.,           1.
      3,           0.,      0.34375
      4,  0.251179069,  0.249224231
      5,           0.,         0.25
      6,  0.177594975,   0.17595461
      7,         0.25,           0.
      8,  0.348214298,           0.
      9,           3.,           0.
     10,           3.,  0.300000012
     11,           3.,           1.
     12,  0.200000003,           1.
     13,  0.100000001,           1.
     14,           0.,      0.90625
     15,           0.,       0.8125
     16,           0.,      0.71875
     17,           0.,        0.625
     18,           0.,      0.53125
     19,           0.,       0.4375
     20, 0.0754669309,  0.323968381
** ... 954 like lines cut
*Element, type=CPS8R
  1,   1,  12, 120,  27, 340, 341, 342, 343
  2,  12,  13, 121, 120, 344, 345, 346, 341
  3,  13,   2,  14, 121, 347, 348, 349, 345
  4,  27, 120, 122,  26, 342, 350, 351, 352
  5, 120, 121, 123, 122, 346, 353, 354, 350
  6, 121,  14,  15, 123, 349, 355, 356, 353
  7,  26, 122, 124,  25, 351, 357, 358, 359
  8, 122, 123, 125, 124, 354, 360, 361, 357
  9, 123,  15,  16, 125, 356, 362, 363, 360
 10,  25, 124, 126,  24, 358, 364, 365, 366
 11, 124, 125, 127, 126, 361, 367, 368, 364
 12, 125,  16,  17, 127, 363, 369, 370, 367
 13,  24, 126, 128,  23, 365, 371, 372, 373
 14, 126, 127, 129, 128, 368, 374, 375, 371
 15, 127,  17,  18, 129, 370, 376, 377, 374
 16,  23, 128, 130,  22, 372, 378, 379, 380
 17, 128, 129, 131, 130, 375, 381, 382, 378
 18, 129,  18,  19, 131, 377, 383, 384, 381
 19,  22, 130,  21,   4, 379, 385, 386, 387
 20, 130, 131,  20,  21, 382, 388, 389, 385
** ... 277 like lines cut
*Nset, nset=Set-8, generate
   1,  974,    1
*Elset, elset=Set-8, generate
   1,  297,    1
** Section: Section-1
*Solid Section, elset=Set-8, material=Material-1
1.,
*End Instance
**  
*End Assembly
** 
** MATERIALS
** 
*Material, name=Material-1
*Elastic
 2.5, 0.3
