*Heading
** Job name: qplate_8node_4 Model name: Model-1
** Generated by: Abaqus/CAE 6.13-1
*Preprint, echo=NO, model=NO, history=NO, contact=NO
**
** PARTS
**
*Part, name=Part-1
*End Part
**  
**
** ASSEMBLY
**
*Assembly, name=Assembly
**  
*Instance, name=Part-1-1, part=Part-1
*Node
      1,  0.449999988,           1.
      2,           0.,           1.
      3,           0.,  0.400000006
      4,  0.320576429,  0.312176228
      5,           0.,         0.25
      6,  0.177594975,   0.17595461
      7,         0.25,           0.
      8,  0.402777791,           0.
      9,           3.,           0.
     10,           3.,  0.428571433
     11,           3.,           1.
     12,  0.300000012,           1.
     13,  0.150000006,           1.
     14,           0.,  0.850000024
     15,           0.,  0.699999988
     16,           0.,  0.550000012
     17, 0.0925510973,  0.382940471
     18,   0.19291164,  0.356936306
     19,  0.369705439,  0.501115441
     20,  0.401370823,  0.671142578
** ... 448 like lines cut
*Element, type=CPS8R
  1,   1,  12,  81,  21, 167, 168, 169, 170
  2,  12,  13,  82,  81, 171, 172, 173, 168
  3,  13,   2,  14,  82, 174, 175, 176, 172
  4,  21,  81,  83,  20, 169, 177, 178, 179
  5,  81,  82,  84,  83, 173, 180, 181, 177
  6,  82,  14,  15,  84, 176, 182, 183, 180
  7,  20,  83,  85,  19, 178, 184, 185, 186
  8,  83,  84,  86,  85, 181, 187, 188, 184
  9,  84,  15,  16,  86, 183, 189, 190, 187
 10,  19,  85,  18,   4, 185, 191, 192, 193
 11,  85,  86,  17,  18, 188, 194, 195, 191
 12,  86,  16,   3,  17, 190, 196, 197, 194
 13,   3,   5,  22,  17, 198, 199, 200, 197
 14,  17,  22,  23,  18, 200, 201, 202, 195
 15,  18,  23,   6,   4, 202, 203, 204, 192
 16,   6,  24,  27,   4, 205, 206, 207, 204
 17,  24,  25,  26,  27, 208, 209, 210, 206
 18,  25,   7,   8,  26, 211, 212, 213, 209
 19,   8,  28,  87,  26, 214, 215, 216, 213
 20,  28,  29,  88,  87, 217, 218, 219, 215
** ... 117 like lines cut
*Nset, nset=Set-8, generate
   1,  468,    1
*Elset, elset=Set-8, generate
   1,  137,    1
** Section: Section-1
*Solid Section, elset=Set-8, material=Material-1
1.,
*End Instance
**  
*End Assembly
** 
** MATERIALS
** 
*Material, name=Material-1
*Elastic
 2.5, 0.3
