*Heading
** Job name: qplate_8node_3 Model name: Model-1
** Generated by: Abaqus/CAE 6.13-1
*Preprint, echo=NO, model=NO, history=NO, contact=NO
**
** PARTS
**
*Part, name=Part-1
*End Part
**  
**
** ASSEMBLY
**
*Assembly, name=Assembly
**  
*Instance, name=Part-1-1, part=Part-1
*Node
      1,  0.360000014,           1.
      2,           0.,           1.
      3,           0.,        0.375
      4,   0.27898851,  0.283731759
      5,           0.,         0.25
      6,  0.177594975,   0.17595461
      7,         0.25,           0.
      8,  0.369565219,           0.
      9,           3.,           0.
     10,           3.,        0.375
     11,           3.,           1.
     12,  0.239999995,           1.
     13,  0.119999997,           1.
     14,           0.,        0.875
     15,           0.,         0.75
     16,           0.,        0.625
     17,           0.,          0.5
     18, 0.0822274238,  0.356645048
     19,  0.170142442,  0.329392761
     20,  0.305316895,  0.442218959
** ... 640 like lines cut
*Element, type=CPS8R
  1,   1,  12,  99,  23, 233, 234, 235, 236
  2,  12,  13, 100,  99, 237, 238, 239, 234
  3,  13,   2,  14, 100, 240, 241, 242, 238
  4,  23,  99, 101,  22, 235, 243, 244, 245
  5,  99, 100, 102, 101, 239, 246, 247, 243
  6, 100,  14,  15, 102, 242, 248, 249, 246
  7,  22, 101, 103,  21, 244, 250, 251, 252
  8, 101, 102, 104, 103, 247, 253, 254, 250
  9, 102,  15,  16, 104, 249, 255, 256, 253
 10,  21, 103, 105,  20, 251, 257, 258, 259
 11, 103, 104, 106, 105, 254, 260, 261, 257
 12, 104,  16,  17, 106, 256, 262, 263, 260
 13,  20, 105,  19,   4, 258, 264, 265, 266
 14, 105, 106,  18,  19, 261, 267, 268, 264
 15, 106,  17,   3,  18, 263, 269, 270, 267
 16,   3,   5,  24,  18, 271, 272, 273, 270
 17,  18,  24,  25,  19, 273, 274, 275, 268
 18,  19,  25,   6,   4, 275, 276, 277, 265
 19,   6,  26,  29,   4, 278, 279, 280, 277
 20,  26,  27,  28,  29, 281, 282, 283, 279
** ... 177 like lines cut
*Nset, nset=Set-8, generate
   1,  660,    1
*Elset, elset=Set-8, generate
   1,  197,    1
** Section: Section-1
*Solid Section, elset=Set-8, material=Material-1
1.,
*End Instance
**  
*End Assembly
** 
** MATERIALS
** 
*Material, name=Material-1
*Elastic
 2.5, 0.3
