*Heading
** Job name: qplate_cst_1 Model name: Model-1
** Generated by: Abaqus/CAE 6.13-1
*Preprint, echo=NO, model=NO, history=NO, contact=NO
**
** PARTS
**
*Part, name=Part-1
*Node
      1,  0.155172408,           1.
      2,           0.,           1.
      3,           0.,  0.300000012
      4,  0.169642851,  0.245097712
      5,           0.,         0.25
      6,  0.139615044,  0.207382828
      7,         0.25,           0.
      8,  0.299107134,           0.
      9,  0.177594975,   0.17595461
     10,           3.,           0.
     11,           3.,  0.263157904
     12,           3.,           1.
     13,  0.103448279,           1.
     14, 0.0517241396,           1.
     15,           0.,  0.949999988
     16,           0.,  0.899999976
     17,           0.,  0.850000024
     18,           0.,  0.800000012
     19,           0.,         0.75
     20,           0.,  0.699999988
** ... 1154 like lines cut
*Element, type=CPS3
   1,    1,   13,  231
   2,  231,   42,    1
   3,   13,   14,  232
   4,  232,  231,   13
   5,   14,    2,   15
   6,   15,  232,   14
   7,   42,  231,  233
   8,  233,   41,   42
   9,  231,  232,  234
  10,  234,  233,  231
  11,  232,   15,   16
  12,   16,  234,  232
  13,   41,  233,  235
  14,  235,   40,   41
  15,  233,  234,  236
  16,  236,  235,  233
  17,  234,   16,   17
  18,   17,  236,  234
  19,   40,  235,  237
  20,  237,   39,   40
** ... 2170 like lines cut
*Nset, nset=Set-8, generate
    1,  1174,     1
*Elset, elset=Set-8, generate
    1,  2190,     1
** Section: Section-1
*Solid Section, elset=Set-8, material=Material-1
1.,
*End Part
**  
**
** ASSEMBLY
**
*Assembly, name=Assembly
**  
*Instance, name=Part-1-1, part=Part-1
*End Instance
**  
*End Assembly
** 
** MATERIALS
** 
*Material, name=Material-1
*Elastic
 2.5, 0.3
