*Heading
** Job name: qplate_cst_4 Model name: Model-1
** Generated by: Abaqus/CAE 6.13-1
*Preprint, echo=NO, model=NO, history=NO, contact=NO
**
** PARTS
**
*Part, name=Part-1
*End Part
**  
**
** ASSEMBLY
**
*Assembly, name=Assembly
**  
*Instance, name=Part-1-1, part=Part-1
*Node
      1,  0.300000012,           1.
      2,           0.,           1.
      3,           0.,      0.34375
      4,  0.251179069,  0.249224231
      5,           0.,         0.25
      6,  0.177594975,   0.17595461
      7,         0.25,           0.
      8,  0.348214298,           0.
      9,           3.,           0.
     10,           3.,  0.300000012
     11,           3.,           1.
     12,  0.200000003,           1.
     13,  0.100000001,           1.
     14,           0.,      0.90625
     15,           0.,       0.8125
     16,           0.,      0.71875
     17,           0.,        0.625
     18,           0.,      0.53125
     19,           0.,       0.4375
     20, 0.0754669309,  0.323968381
** ... 319 like lines cut
*Element, type=CPS3
  1,   1,  12,  27
  2,  12, 120,  27
  3,  12,  13, 120
  4,  13, 121, 120
  5,  13,   2,  14
  6,  14, 121,  13
  7,  27, 120, 122
  8, 122,  26,  27
  9, 120, 121, 123
 10, 123, 122, 120
 11, 121,  14,  15
 12,  15, 123, 121
 13,  26, 122, 124
 14, 124,  25,  26
 15, 122, 123, 125
 16, 125, 124, 122
 17, 123,  15,  16
 18,  16, 125, 123
 19,  25, 124, 126
 20, 126,  24,  25
** ... 574 like lines cut
*Nset, nset=Set-8, generate
   1,  339,    1
*Elset, elset=Set-8, generate
   1,  594,    1
** Section: Section-1
*Solid Section, elset=Set-8, material=Material-1
1.,
*End Instance
**  
*End Assembly
** 
** MATERIALS
** 
*Material, name=Material-1
*Elastic
 2.5, 0.3
