*Heading
** Job name: qplate_cst_2 Model name: Model-1
** Generated by: Abaqus/CAE 6.13-1
*Preprint, echo=NO, model=NO, history=NO, contact=NO
**
** PARTS
**
*Part, name=Part-1
*End Part
**  
**
** ASSEMBLY
**
*Assembly, name=Assembly
**  
*Instance, name=Part-1-1, part=Part-1
*Node
      1,  0.449999988,           1.
      2,           0.,           1.
      3,           0.,  0.357142866
      4,   0.35537833,  0.161638588
      5,           0.,         0.25
      6,  0.177594975,   0.17595461
      7,  0.231191203, 0.0951347873
      8,         0.25,           0.
      9,  0.402777791,           0.
     10,           3.,           0.
     11,           3.,  0.142857149
     12,           3.,           1.
     13,  0.300000012,           1.
     14,  0.150000006,           1.
     15,           0.,  0.892857134
     16,           0.,  0.785714269
     17,           0.,  0.678571403
     18,           0.,  0.571428597
     19,           0.,  0.464285702
     20,  0.111307472,  0.315511853
** ... 150 like lines cut
*Element, type=CPS3
  1,   1,  13,  26
  2,  13,  81,  26
  3,  13,  14,  82
  4,  82,  81,  13
  5,  14,   2,  15
  6,  15,  82,  14
  7,  26,  81,  83
  8,  83,  25,  26
  9,  81,  82,  84
 10,  84,  83,  81
 11,  82,  15,  16
 12,  16,  84,  82
 13,  25,  83,  85
 14,  85,  24,  25
 15,  83,  84,  86
 16,  86,  85,  83
 17,  84,  16,  17
 18,  17,  86,  84
 19,  24,  85,  87
 20,  87,  23,  24
** ... 262 like lines cut
*Nset, nset=Set-8, generate
   1,  170,    1
*Elset, elset=Set-8, generate
   1,  282,    1
** Section: Section-1
*Solid Section, elset=Set-8, material=Material-1
1.,
*End Instance
**  
*End Assembly
** 
** MATERIALS
** 
*Material, name=Material-1
*Elastic
 2.5, 0.3
