*Heading
** Job name: qplate Model name: Model-1
** Generated by: Abaqus/CAE 6.13-1
*Preprint, echo=NO, model=NO, history=NO, contact=NO
**
** PARTS
**
*Part, name=Part-1
*Node
      1,  0.400000006,           1.
      2,           0.,           1.
      3,           0.,       0.4375
      4,  0.321922362,  0.319392979
      5,           0.,         0.25
      6,  0.177594975,   0.17595461
      7,         0.25,           0.
      8,  0.446428567,           0.
      9,           3.,           0.
     10,           3.,  0.400000006
     11,           3.,           1.
     12,  0.300000012,           1.
     13,  0.200000003,           1.
     14,  0.100000001,           1.
     15,           0.,      0.90625
     16,           0.,       0.8125
     17,           0.,      0.71875
     18,           0.,        0.625
     19,           0.,      0.53125
     20, 0.0696419775,  0.417932093
** ... 323 like lines cut
*Element, type=CPS3
  1,   1,  12,  27
  2,  12, 123,  27
  3,  12,  13, 123
  4,  13, 124, 123
  5,  13,  14, 124
  6,  14, 125, 124
  7,  14,   2,  15
  8,  15, 125,  14
  9,  27, 123,  26
 10, 123, 126,  26
 11, 123, 124, 126
 12, 124, 127, 126
 13, 124, 125, 128
 14, 128, 127, 124
 15, 125,  15,  16
 16,  16, 128, 125
 17,  26, 126,  25
 18, 126, 129,  25
 19, 126, 127, 130
 20, 130, 129, 126
** ... 580 like lines cut
*Nset, nset=Set-8, generate
   1,  343,    1
*Elset, elset=Set-8, generate
   1,  600,    1
** Section: Section-1
*Solid Section, elset=Set-8, material=Material-1
1.,
*End Part
**  
**
** ASSEMBLY
**
*Assembly, name=Assembly
**  
*Instance, name=Part-1-1, part=Part-1
*End Instance
**  
*End Assembly
** 
** MATERIALS
** 
*Material, name=Material-1
*Elastic
 2.5, 0.3
